Circuit: * C:\users\hardy\Mes documents\LTSpice_Simulations\mosfet.asc

.step vgs=3.5
.step vgs=5
.step vgs=6.5
.step vgs=8
.step vgs=9.5

Date: Tue Oct 11 23:11:04 2022
Total elapsed time: 0.148 seconds.

tnom = 27
temp = 27
method = trap
totiter = 20031
traniter = 0
tranpoints = 0
accept = 0
rejected = 0
matrix size = 8
fillins = 0
solver = Normal
Matrix Compiler1: 326 bytes object code size  0.1/0.1/[0.1]
Matrix Compiler2: 554 bytes object code size  0.1/0.1/[0.1]

