Circuit: * Z:\home\hardy\Electronique\e-simulations\astable\astable2.asc

.OP point found by inspection.

Date: Tue Oct 11 23:03:36 2022
Total elapsed time: 0.210 seconds.

tnom = 27
temp = 27
method = modified trap
totiter = 13743
traniter = 13743
tranpoints = 3920
accept = 3124
rejected = 796
matrix size = 12
fillins = 6
solver = Normal
Matrix Compiler1: 1.17 KB object code size  0.3/0.2/[0.1]
Matrix Compiler2: 1.18 KB object code size  0.2/0.2/[0.1]

