Circuit: * C:\users\hardy\Bureau\e-simulations\Astable\astable2.asc

Warning: Multiple definitions of model "2scr375p" Type: BJT
Warning: Multiple definitions of model "bc857b" Type: BJT
Warning: Multiple definitions of model "bc847c" Type: BJT
Warning: Multiple definitions of model "bc847b" Type: BJT
.OP point found by inspection.

Date: Fri Sep  6 23:16:38 2024
Total elapsed time: 0.128 seconds.

tnom = 27
temp = 27
method = modified trap
totiter = 14063
traniter = 14063
tranpoints = 4027
accept = 3188
rejected = 839
matrix size = 12
fillins = 6
solver = Normal
Avg thread counts: 1.0/1.1/1.1/1.0
Matrix Compiler1: 1.18 KB object code size  0.6/0.3/[0.3]
Matrix Compiler2: 1.18 KB object code size  0.4/0.3/[0.2]

