Circuit: * Z:\home\hardy\Electronique\LTSpice_Simulations\pnp.asc


Date: Wed Sep 28 23:14:31 2022
Total elapsed time: 0.077 seconds.

tnom = 27
temp = 27
method = trap
totiter = 44
traniter = 0
tranpoints = 0
accept = 0
rejected = 0
matrix size = 9
fillins = 0
solver = Normal
Matrix Compiler1: 456 bytes object code size
Matrix Compiler2: 667 bytes object code size
