Circuit: * Z:\home\hardy\Electronique\e-simulations\DCOffset\DCOffset1.asc

WARNING: Less than two connections to node NC_01.  This node is used by V3.
Direct Newton iteration for .op point succeeded.

Date: Tue Oct 11 23:08:47 2022
Total elapsed time: 0.088 seconds.

tnom = 27
temp = 27
method = modified trap
totiter = 2706
traniter = 2703
tranpoints = 1331
accept = 1216
rejected = 115
matrix size = 10
fillins = 0
solver = Normal
Matrix Compiler1: 238 bytes object code size  0.1/0.1/[0.1]
Matrix Compiler2: 544 bytes object code size  0.1/0.1/[0.1]

