Circuit: * C:\users\hardy\Bureau\e-simulations\DCOffset\DCOffset1.asc

WARNING: Less than two connections to node nc_01.  This node is used by v3.
Direct Newton iteration for .op point succeeded.

Date: Thu Jul 24 22:10:33 2025
Total elapsed time: 0.111 seconds.

tnom = 27
temp = 27
method = modified trap
totiter = 2706
traniter = 2703
tranpoints = 1331
accept = 1216
rejected = 115
matrix size = 10
fillins = 0
solver = Normal
Avg thread counts: 1.1/1.2/1.2/1.1
Matrix Compiler1:      15 opcodes  0.3/[0.2]/0.2
Matrix Compiler2: off
