Circuit: * C:\users\hardy\Mes documents\Demodulation-ASK-2.asc

D2: both pins shorted together -- ignoring.
Direct Newton iteration failed to find .op point.  (Use ".option noopiter" to skip.)
Starting Gmin stepping
Gmin = 10
Gmin = 1.07374
Gmin = 0.115292
Gmin = 0.0123794
Gmin = 0.00132923
Gmin = 0.000142725
Gmin = 1.5325e-005
Gmin = 1.6455e-006
Gmin = 1.76685e-007
Gmin = 1.89714e-008
Gmin = 2.03704e-009
Gmin = 2.18725e-010
Gmin = 2.34854e-011
Gmin = 2.52173e-012
Gmin = 2.70769e-013
Gmin = 0
Gmin stepping succeeded in finding the operating point.


Date: Sat Oct 01 21:05:26 2022
Total elapsed time: 0.195 seconds.

tnom = 27
temp = 27
method = modified trap
totiter = 9630
traniter = 9129
tranpoints = 3332
accept = 2486
rejected = 846
matrix size = 42
fillins = 39
solver = Normal
Matrix Compiler1: 3.52 KB object code size  1.1/0.5/[0.2]
Matrix Compiler2: 3.81 KB object code size  0.7/0.8/[0.5]

