Circuit: * Z:\home\hardy\Electronique\LTSpice_Simulations\npn2.asc

.OP point found by inspection.
.step ib=0
.step ib=0.0002
.step ib=0.0004
.step ib=0.0006
.step ib=0.0008
.step ib=0.001

Date: Thu Oct 06 23:27:53 2022
Total elapsed time: 0.081 seconds.

tnom = 27
temp = 27
method = trap
totiter = 6063
traniter = 0
tranpoints = 0
accept = 0
rejected = 0
matrix size = 6
fillins = 0
solver = Normal
Matrix Compiler1: 360 bytes object code size  0.1/0.1/[0.1]
Matrix Compiler2: 462 bytes object code size  0.1/0.1/[0.1]

