Circuit: * C:\users\hardy\Mes documents\LTSpice_Simulations\npn.asc

R1: both pins shorted together -- ignoring.
Direct Newton iteration for .op point succeeded.

Date: Thu Oct 06 23:30:55 2022
Total elapsed time: 0.098 seconds.

tnom = 27
temp = 27
method = modified trap
totiter = 14486
traniter = 14476
tranpoints = 4737
accept = 3407
rejected = 1330
matrix size = 8
fillins = 0
solver = Normal
Matrix Compiler1: 344 bytes object code size  0.1/0.1/[0.1]
Matrix Compiler2: 594 bytes object code size  0.1/0.2/[0.1]

