Circuit: * Z:\home\hardy\Electronique\LTSpice_Simulations\NE555_Misc.asc

Direct Newton iteration for .op point succeeded.

Date: Tue Sep 27 16:10:32 2022
Total elapsed time: 0.156 seconds.

tnom = 27
temp = 27
method = modified trap
totiter = 20330
traniter = 20323
tranpoints = 5920
accept = 4614
rejected = 1306
matrix size = 23
fillins = 0
solver = Normal
Matrix Compiler1: 1.06 KB object code size  0.4/0.2/[0.2]
Matrix Compiler2: 1.63 KB object code size  0.2/0.3/[0.2]

